
#======================================================================
# CRYSTAL DATA
#----------------------------------------------------------------------
data_VESTA_phase_1

_chemical_name_common                  'XCrySDen XSF file'
_cell_length_a                         26.889261
_cell_length_b                         26.886944
_cell_length_c                         15.000000
_cell_angle_alpha                      90.000000
_cell_angle_beta                       90.000000
_cell_angle_gamma                      59.886341
_cell_volume                           9380.881766
_space_group_name_H-M_alt              'P 1'
_space_group_IT_number                 1

loop_
_space_group_symop_operation_xyz
   'x, y, z'

loop_
   _atom_site_label
   _atom_site_occupancy
   _atom_site_fract_x
   _atom_site_fract_y
   _atom_site_fract_z
   _atom_site_adp_type
   _atom_site_U_iso_or_equiv
   _atom_site_type_symbol
   C1         1.0     0.231449     0.338378     0.492713    Uiso  ? C
   C2         1.0     0.181206     0.390586     0.498993    Uiso  ? C
   C3         1.0     0.181473     0.442732     0.502247    Uiso  ? C
   N1         1.0     0.124865     0.485794     0.509609    Uiso  ? N
   C4         1.0     0.106284     0.546304     0.514131    Uiso  ? C
   C5         1.0     0.389122     0.181425     0.498834    Uiso  ? C
   C6         1.0     0.441620     0.181016     0.500445    Uiso  ? C
   C7         1.0     0.337169     0.232015     0.493535    Uiso  ? C
   C8         1.0     0.443674     0.231205     0.496693    Uiso  ? C
   C9         1.0     0.337827     0.284305     0.491473    Uiso  ? C
   C10        1.0     0.390985     0.283897     0.492798    Uiso  ? C
   C11        1.0     0.284078     0.338379     0.491589    Uiso  ? C
   C12        1.0     0.391248     0.337581     0.492533    Uiso  ? C
   C13        1.0     0.284331     0.391191     0.493929    Uiso  ? C
   C14        1.0     0.338342     0.390788     0.493209    Uiso  ? C
   C15        1.0     0.231992     0.444170     0.498905    Uiso  ? C
   C16        1.0     0.338239     0.443453     0.495154    Uiso  ? C
   C17        1.0     0.444245     0.336847     0.493929    Uiso  ? C
   C18        1.0     0.442779     0.388819     0.497452    Uiso  ? C
   N2         1.0     0.485873     0.402315     0.502173    Uiso  ? N
   C19        1.0     0.390518     0.441346     0.497877    Uiso  ? C
   N3         1.0     0.404479     0.484092     0.502453    Uiso  ? N
   C20        1.0     0.463149     0.460924     0.505329    Uiso  ? C
   C21        1.0     0.544970     0.105021     0.510123    Uiso  ? C
   N4         1.0     0.402520     0.124867     0.504753    Uiso  ? N
   N5         1.0     0.484290     0.124210     0.507177    Uiso  ? N
   C22        1.0     0.461063     0.088820     0.510007    Uiso  ? C
   H1         1.0     0.558387     0.117603     0.448962    Uiso  ? H
   H2         1.0     0.568708     0.058110     0.515833    Uiso  ? H
   H3         1.0     0.554933     0.123691     0.567849    Uiso  ? H
   C23        1.0     0.360445     0.106484     0.504567    Uiso  ? C
   H4         1.0     0.335821     0.119058     0.442007    Uiso  ? H
   H5         1.0     0.330517     0.125749     0.560772    Uiso  ? H
   H6         1.0     0.383091     0.059610     0.510804    Uiso  ? H
   N6         1.0     0.124464     0.404584     0.504689    Uiso  ? N
   C24        1.0     0.088945     0.463172     0.511034    Uiso  ? C
   H7         1.0     0.059618     0.570238     0.523419    Uiso  ? H
   H8         1.0     0.117124     0.560681     0.452246    Uiso  ? H
   H9         1.0     0.126924     0.554971     0.570534    Uiso  ? H
   C25        1.0     0.105327     0.363104     0.502478    Uiso  ? C
   Au1        1.0     0.004228     0.505542     0.513041    Uiso  ? Au
   C26        1.0     0.362718     0.544768     0.504004    Uiso  ? C
   C27        1.0     0.546505     0.360348     0.502789    Uiso  ? C
   Au2        1.0     0.505582     0.503046     0.508030    Uiso  ? Au
   Au3        1.0     0.502995     0.004112     0.513293    Uiso  ? Au
   C28        1.0     0.776480     0.671346     0.491157    Uiso  ? C
   C29        1.0     0.827055     0.619360     0.495844    Uiso  ? C
   C30        1.0     0.827546     0.566803     0.495497    Uiso  ? C
   N7         1.0     0.884313     0.524185     0.503523    Uiso  ? N
   C31        1.0     0.903866     0.463406     0.505802    Uiso  ? C
   C32        1.0     0.617933     0.827248     0.496996    Uiso  ? C
   C33        1.0     0.565715     0.827058     0.496874    Uiso  ? C
   C34        1.0     0.670190     0.777016     0.491521    Uiso  ? C
   C35        1.0     0.564325     0.776565     0.491377    Uiso  ? C
   C36        1.0     0.670177     0.724431     0.488162    Uiso  ? C
   C37        1.0     0.617354     0.724198     0.488115    Uiso  ? C
   C38        1.0     0.724233     0.670685     0.487831    Uiso  ? C
   C39        1.0     0.617782     0.670169     0.487657    Uiso  ? C
   C40        1.0     0.724670     0.617509     0.487281    Uiso  ? C
   C41        1.0     0.670982     0.617253     0.487100    Uiso  ? C
   C42        1.0     0.777382     0.564791     0.490039    Uiso  ? C
   C43        1.0     0.671704     0.564265     0.489366    Uiso  ? C
   C44        1.0     0.565145     0.670267     0.490631    Uiso  ? C
   C45        1.0     0.567257     0.618013     0.494820    Uiso  ? C
   N8         1.0     0.524534     0.604140     0.501621    Uiso  ? N
   C46        1.0     0.619774     0.565723     0.494345    Uiso  ? C
   N9         1.0     0.606271     0.522699     0.501329    Uiso  ? N
   C47        1.0     0.547686     0.545492     0.505412    Uiso  ? C
   C48        1.0     0.462030     0.902421     0.507369    Uiso  ? C
   N10        1.0     0.603947     0.883876     0.505209    Uiso  ? N
   N11        1.0     0.522628     0.883623     0.504945    Uiso  ? N
   C49        1.0     0.545308     0.919419     0.509828    Uiso  ? C
   C50        1.0     0.645486     0.902922     0.507792    Uiso  ? C
   N12        1.0     0.883490     0.606047     0.503528    Uiso  ? N
   C51        1.0     0.919567     0.547503     0.508355    Uiso  ? C
   C52        1.0     0.901633     0.648267     0.506639    Uiso  ? C
   C53        1.0     0.648054     0.462010     0.503164    Uiso  ? C
   C54        1.0     0.463899     0.645916     0.504870    Uiso  ? C
   H10        1.0     0.230838     0.485031     0.501646    Uiso  ? H
   H11        1.0     0.298684     0.484627     0.495344    Uiso  ? H
   H12        1.0     0.229874     0.298902     0.489962    Uiso  ? H
   H13        1.0     0.297400     0.230953     0.492801    Uiso  ? H
   H14        1.0     0.484790     0.229546     0.498396    Uiso  ? H
   H15        1.0     0.485176     0.297028     0.493109    Uiso  ? H
   H16        1.0     0.777542     0.711118     0.491906    Uiso  ? H
   H17        1.0     0.709702     0.778569     0.491368    Uiso  ? H
   H18        1.0     0.523433     0.777740     0.491126    Uiso  ? H
   H19        1.0     0.779037     0.523666     0.489585    Uiso  ? H
   H20        1.0     0.711530     0.523343     0.488590    Uiso  ? H
   H21        1.0     0.523978     0.709824     0.491184    Uiso  ? H
   H22        1.0     0.560131     0.338163     0.438212    Uiso  ? H
   H23        1.0     0.556080     0.328344     0.555402    Uiso  ? H
   H24        1.0     0.570371     0.382687     0.515895    Uiso  ? H
   H25        1.0     0.127691     0.330014     0.553732    Uiso  ? H
   H26        1.0     0.113648     0.342219     0.436829    Uiso  ? H
   H27        1.0     0.059057     0.385590     0.515688    Uiso  ? H
   H28        1.0     0.665619     0.446010     0.436330    Uiso  ? H
   H29        1.0     0.626936     0.438899     0.527765    Uiso  ? H
   H30        1.0     0.683461     0.454030     0.548291    Uiso  ? H
   H31        1.0     0.333821     0.555195     0.561532    Uiso  ? H
   H32        1.0     0.336938     0.557586     0.442573    Uiso  ? H
   H33        1.0     0.385738     0.568595     0.509182    Uiso  ? H
   H34        1.0     0.948096     0.440666     0.530748    Uiso  ? H
   H35        1.0     0.902700     0.447112     0.439045    Uiso  ? H
   H36        1.0     0.876514     0.455287     0.550829    Uiso  ? H
   H37        1.0     0.664528     0.899710     0.441657    Uiso  ? H
   H38        1.0     0.679916     0.876614     0.555215    Uiso  ? H
   H39        1.0     0.623648     0.947800     0.529737    Uiso  ? H
   H40        1.0     0.454010     0.876297     0.555193    Uiso  ? H
   H41        1.0     0.446422     0.898741     0.441314    Uiso  ? H
   H42        1.0     0.438636     0.947424     0.528687    Uiso  ? H
   H43        1.0     0.440363     0.623148     0.517100    Uiso  ? H
   H44        1.0     0.449350     0.669527     0.441554    Uiso  ? H
   H45        1.0     0.454948     0.676759     0.559139    Uiso  ? H
   H46        1.0     0.891447     0.672393     0.443704    Uiso  ? H
   H47        1.0     0.948157     0.625826     0.517374    Uiso  ? H
   H48        1.0     0.880088     0.678616     0.561658    Uiso  ? H
